data_GeO2
_audit_creation_date              2024-06-07
_audit_creation_method            'Materials Studio'
_symmetry_space_group_name_H-M    'P6/MMM'
_symmetry_Int_Tables_number       191
_symmetry_cell_setting            hexagonal
loop_
_symmetry_equiv_pos_as_xyz
  x,y,z
  -y,x-y,z
  -x+y,-x,z
  -x,-y,z
  y,-x+y,z
  x-y,x,z
  y,x,-z
  x-y,-y,-z
  -x,-x+y,-z
  -y,-x,-z
  -x+y,y,-z
  x,x-y,-z
  -x,-y,-z
  y,-x+y,-z
  x-y,x,-z
  x,y,-z
  -y,x-y,-z
  -x+y,-x,-z
  -y,-x,z
  -x+y,y,z
  x,x-y,z
  y,x,z
  x-y,-y,z
  -x,-x+y,z
_cell_length_a                    5.5800
_cell_length_b                    5.5800
_cell_length_c                    18.2435
_cell_angle_alpha                 90.0000
_cell_angle_beta                  90.0000
_cell_angle_gamma                 120.0000
loop_
_atom_site_label
_atom_site_type_symbol
_atom_site_fract_x
_atom_site_fract_y
_atom_site_fract_z
_atom_site_U_iso_or_equiv
_atom_site_adp_type
_atom_site_occupancy
Ge1    Ge    0.66667   0.33333   0.41091   0.00000  Uiso   1.00
O1     O     0.50000   0.50000   0.38105   0.00000  Uiso   1.00
O7     O     0.33333   0.66667   0.50000   0.00000  Uiso   1.00
loop_
_geom_bond_atom_site_label_1
_geom_bond_atom_site_label_2
_geom_bond_distance
_geom_bond_site_symmetry_2
_ccdc_geom_bond_type
Ge1    O1      1.700   .     S
Ge1    O1      1.700   2_655 S
Ge1    O1      1.700   3_665 S
Ge1    O7      1.625   4_665 S
O1     Ge1     1.700   4_665 S
O7     Ge1     1.625   4_665 S
O7     Ge1     1.625   7_556 S
